version 2
1
9
.tran 1m 500m{return}{return}{return}.kicad adjustpaths{return}.save all{return}.probe alli
2
2
I(D1)
 
1
V(Vin)
 
